Circuit: * D:\Paradigm\GitHub\electrical\LVDC Distribution Board\ltspice\Dual Reverse Voltage Protection.asc

Instance "m:m2:1": Width narrower than recommended for a level 3 MOSFET.
Instance "m:m1:1": Width narrower than recommended for a level 3 MOSFET.

Date: Thu Dec 27 19:46:44 2018
Total elapsed time: 0.098 seconds.

tnom = 27
temp = 27
method = trap
totiter = 3239
traniter = 0
tranpoints = 0
accept = 0
rejected = 0
matrix size = 28
fillins = 26
solver = Normal
Matrix Compiler1: 2.67 KB object code size  0.5/0.3/[0.2]
Matrix Compiler2: 2.59 KB object code size  0.2/0.2/[0.1]

